[TITLE]
;;Project Title/Notes

[OPTIONS]
;;Option             Value
FLOW_UNITS           LPS
INFILTRATION         HORTON
FLOW_ROUTING         DYNWAVE
LINK_OFFSETS         DEPTH
MIN_SLOPE            0
ALLOW_PONDING        YES
SKIP_STEADY_STATE    NO

START_DATE           07/08/2020
START_TIME           06:00:00
REPORT_START_DATE    07/08/2020
REPORT_START_TIME    06:00:00
END_DATE             07/11/2020
END_TIME             06:00:00
SWEEP_START          01/01
SWEEP_END            12/31
DRY_DAYS             0
REPORT_STEP          00:30:00
WET_STEP             00:05:00
DRY_STEP             01:00:00
ROUTING_STEP         0:00:30 
RULE_STEP            00:00:00

INERTIAL_DAMPING     PARTIAL
NORMAL_FLOW_LIMITED  BOTH
FORCE_MAIN_EQUATION  H-W
VARIABLE_STEP        0.75
LENGTHENING_STEP     0
MIN_SURFAREA         1.167
MAX_TRIALS           8
HEAD_TOLERANCE       0.0015
SYS_FLOW_TOL         5
LAT_FLOW_TOL         5
MINIMUM_STEP         0.5
THREADS              1

[EVAPORATION]
;;Data Source    Parameters
;;-------------- ----------------
CONSTANT         0.0
DRY_ONLY         NO

[JUNCTIONS]
;;Name           Elevation  MaxDepth   InitDepth  SurDepth   Aponded   
;;-------------- ---------- ---------- ---------- ---------- ----------
;2
1_1              34.00      0          0          0          0         
;109
1_10             32.979     1.8        0          0          0         
;114
1_11             32.951     1.8        0          0          0         
;121
1_12             32.920     1.8        0          0          0         
;123
1_13             32.903     1.8        0          0          0         
1_14             32.886     1.8        0          0          0         
;135
1_15             32.867     1.8        0          0          0         
1_16             32.853     1.8        0          0          0         
;10-sez.1
1_2              33.956     0          0          0          0         
1_3              33.832     0          0          0          0         
1_4              33.700     0          0          0          0         
1_5              33.567     0          0          0          0         
1_6              33.202     0          0          0          0         
1_7              33.126     0          0          0          0         
1_8              33.091     0          0          0          0         
;104
1_9              33.041     1.8        0          0          0         
5_2              32.684     0          0          0          0         
5_3              32.661     0          0          0          0         
5_4              32.646     0          0          0          0         
5_5              32.634     0          0          0          0         
5_6              32.616     0          0          0          0         
5_7              32.600     0          0          0          0         
5_8              32.565     0          0          0          0         
2_1              32.853     0          0          0          0         
5_9              32.554     0          0          0          0         
3_1              32.853     0          0          0          0         
;142
3_2              32.835     0          0          0          0         
;144
3_3              32.817     0          0          0          0         
;146
3_4              32.794     0          0          0          0         
;148
3_5              32.768     0          0          0          0         
;149
3_6              32.757     0          0          0          0         
;152
3_7              32.730     0          0          0          0         
3_8              32.710     0          0          0          0         
6_8              31.567     1.2        0          0          0         
6_7              31.620     1.2        0          0          0         
6_6              31.767     1.2        0          0          0         
6_4              32.051     1.2        0          0          0         
6_3              32.161     1.2        0          0          0         
4_3              32.148     0          0          0          0         
4_5              31.543     1.4        0          0          0         
4_2              32.550     1.4        0          0          0         
7_6              31.987     0          0          0          0         
7_7              31.656     0          0          0          0         
7_8              31.518     0          0          0          0         
7_3              32.304     0          0          0          0         
6_5              31.891     1.2        0          0          0         
6_11             31.377     1.2        0          0          0         
6_10             31.472     1.2        0          0          0         
6_9              31.519     1.2        0          0          0         
7_5              32.166     0          0          0          0         
4_4              31.873     1.4        0          0          0         
5_1              32.71      0          0          0          0         
7_1              32.554     0          0          0          0         
6_1              32.554     1.1        0          0          0         
6_2              32.378     1.2        0          0          0         
4_1              32.710     1.4        0          0          0         
7_2              32.467     0          0          0          0         
7_4              32.247     0          0          0          0         
2_2              32.712     0.000000   0.000000   0.000000   0.000000  

[OUTFALLS]
;;Name           Elevation  Type       Stage Data       Gated    Route To        
;;-------------- ---------- ---------- ---------------- -------- ----------------
1                33.712     FREE                        NO                       

[STORAGE]
;;Name           Elev.    MaxDepth   InitDepth  Shape      Curve Name/Params            N/A      Fevap    Psi      Ksat     IMD     
;;-------------- -------- ---------- ----------- ---------- ---------------------------- -------- --------          -------- --------
out6             31.377   1          0          TABULAR    out                          0        0        
out4             31.543   1          0          TABULAR    out                          0        0       
out7             31.518   1          0          TABULAR    out                          0        0       
out2             32.712   1          0          TABULAR    out                          0        0       
Source           34       1          1          TABULAR    SanMichele                   0        0       

[CONDUITS]
;;Name           From Node        To Node          Length     Roughness  InOffset   OutOffset  InitFlow   MaxFlow   
;;-------------- ---------------- ---------------- ---------- ---------- ---------- ---------- ---------- ----------
1.1              1_1              1_2              87.7       0.02       0          0          0          0         
1.10             1_10             1_11             190.6      0.014285714 0          0          0          0         
1.11             1_11             1_12             204.8      0.014285714 0          0          0          0         
;1.12
1.12             1_12             1_13             110.6      0.014285714 0          0          0          0         
;1.13
1.13             1_13             1_14             114.4      0.014285714 0          0          0          0         
1.14             1_14             1_15             126.3      0.02       0          0          0          0         
1.15             1_15             1_16             96.9       0.02       0          0          0          0         
1.2              1_2              1_3              247.6      0.02       0          0          0          0         
1.3              1_3              1_4              264.5      0.02       0          0          0          0         
1.4              1_4              1_5              222.42     0.02       0          0          0          0         
1.5              1_5              1_6              607        0.02       0          0          0          0         
1.6              1_6              1_7              126.6      0.02       0          0          0          0         
1.7              1_7              1_8              59.3       0.02       0          0          0          0         
1.8              1_8              1_9              83.4       0.02       0          0          0          0         
1.9              1_9              1_10             410.4      0.014285714 0          0          0          0         
2.1              2_1              2_2              705.5      0.02222222 0          0          0          0         
3.1              3_1              3_2              86.8       0.025      0          0          0          0         
3.2              3_2              3_3              93.1       0.025      0          0          0          0         
3.3              3_3              3_4              116.4      0.025      0          0          0          0         
3.4              3_4              3_5              128.5      0.025      0          0          0          0         
3.5              3_5              3_6              54.6       0.025      0          0          0          0         
3.6              3_6              3_7              133.7      0.025      0          0          0          0         
3.7              3_7              3_8              101.4      0.025      0          0          0          0         
4.1              4_1              4_2              228.9      0.016666667 0          0          0          0         
4.2              4_2              4_3              574.3      0.016666667 0          0          0          0         
4.3              4_3              4_4              392.8      0.016666667 0          0          0          0         
4.4              4_4              4_5              471.7      0.016666667 0          0          0          0         
5.1              5_1              5_2              130.7      0.025      0          0          0          0         
5.2              5_2              5_3              111.8      0.025      0          0          0          0         
5.3              5_3              5_4              74.4       0.025      0          0          0          0         
5.4              5_4              5_5              62.6       0.012857   0          0          0          0         
5.5              5_5              5_6              87.8       0.025      0          0          0          0         
5.6              5_6              5_7              83.6       0.025      0          0          0          0         
5.7              5_7              5_8              174.4      0.025      0          0          0          0         
5.8              5_8              5_9              51.6       0.025      0          0          0          0         
6.1              6_1              6_2              320.7      0.014      0          0          0          0         
6.10             6_10             6_11             173.2      0.014      0          0          0          0         
6.2              6_2              6_3              394.6      0.014      0          0          0          0         
6.3              6_3              6_4              198.4      0.014      0          0          0          0         
6.4              6_4              6_5              291.4      0.014      0          0          0          0         
6.5              6_5              6_6              226.7      0.014      0          0          0          0         
6.6              6_6              6_7              266.4      0.014      0          0          0          0         
6.7              6_7              6_8              96.5       0.014      0          0          0          0         
6.8              6_8              6_9              86.8       0.014      0          0          0          0         
6.9              6_9              6_10             86         0.014      0          0          0          0         
7.1              7_1              7_2              158.6      0.025      0          0          0          0         
7.2              7_2              7_3              296.8      0.025      0          0          0          0         
7.3              7_3              7_4              102.8      0.025      0          0          0          0         
7.4              7_4              7_5              148.1      0.025      0          0          0          0         
7.5              7_5              7_6              324.6      0.025      0          0          0          0         
7.6              7_6              7_7              601.6      0.025      0          0          0          0         
7.7              7_7              7_8              250.8      0.025      0          0          0          0         
1                out2             1                1          0.01       1          0          0          0         

[ORIFICES]
;;Name           From Node        To Node          Type         Offset     Qcoeff     Gated    CloseTime 
;;-------------- ---------------- ---------------- ------------ ---------- ---------- -------- ----------
g2               1_16             2_1              SIDE         0          0.65       NO       0         
g3               1_16             3_1              SIDE         0          0.65       NO       0         
g4               3_8              4_1              SIDE         0          0.65       NO       0         
g5               3_8              5_1              SIDE         0          0.65       NO       0         
g6               5_9              6_1              SIDE         0          0.65       NO       0         
g7               5_9              7_1              SIDE         0          0.65       NO       0         

[WEIRS]
;;Name           From Node        To Node          Type         CrestHt    Qcoeff     Gated    EndCon   EndCoeff   Surcharge  RoadWidth  RoadSurf   Coeff. Curve
;;-------------- ---------------- ---------------- ------------ ---------- ---------- -------- -------- ---------- ---------- ---------- ---------- ----------------
u6               6_11             out6             TRANSVERSE   0          1.84       NO       0        0          YES       
u4               4_5              out4             TRANSVERSE   0          1.84       NO       0        0          YES       
u7               7_8              out7             TRANSVERSE   0          1.84       NO       0        0          YES       
u2               2_2              out2             TRANSVERSE   0          1.84       NO       0        0          YES       
g1               Source           1_1              TRANSVERSE   0          1.84       NO       0        0          YES       

[XSECTIONS]
;;Link           Shape        Geom1            Geom2      Geom3      Geom4      Barrels    Culvert   
;;-------------- ------------ ---------------- ---------- ---------- ---------- ---------- ----------
1.1              TRAPEZOIDAL  1.6              0.6        1          1          1                    
1.10             CIRCULAR     1                0          0          0          1                    
1.11             CIRCULAR     1                0          0          0          1                    
1.12             CIRCULAR     1                0          0          0          1                    
1.13             CIRCULAR     1                0          0          0          1                    
1.14             TRAPEZOIDAL  1                0.5        1          1          1                    
1.15             TRAPEZOIDAL  1                0.5        1          1          1                    
1.2              TRAPEZOIDAL  1.6              0.6        1          1          1                    
1.3              TRAPEZOIDAL  1.6              0.6        1          1          1                    
1.4              TRAPEZOIDAL  1.6              0.5        1          1          1                    
1.5              TRAPEZOIDAL  1.6              0.5        1          1          1                    
1.6              TRAPEZOIDAL  1.6              0.5        1          1          1                    
1.7              TRAPEZOIDAL  1.6              0.5        1          1          1                    
1.8              TRAPEZOIDAL  1.6              0.5        1          1          1                    
1.9              CIRCULAR     1                0          0          0          1                    
2.1              TRAPEZOIDAL  0.95             0.45       1          1          1                    
3.1              TRAPEZOIDAL  1.5              0.5        1          1          1                    
3.2              TRAPEZOIDAL  1.5              0.5        1          1          1                    
3.3              TRAPEZOIDAL  1.5              0.5        1          1          1                    
3.4              TRAPEZOIDAL  1.4              0.5        1          1          1                    
3.5              TRAPEZOIDAL  1.5              0.5        1          1          1                    
3.6              TRAPEZOIDAL  1.5              0.5        1          1          1                    
3.7              TRAPEZOIDAL  1.6              0.5        1          1          1                    
4.1              CIRCULAR     0.6              0.000000   0.000000   0.000000   1                    
4.2              CIRCULAR     0.6              0.000000   0.000000   0.000000   1                    
4.3              CIRCULAR     0.6              0.000000   0.000000   0.000000   1                    
4.4              CIRCULAR     0.6              0.000000   0.000000   0.000000   1                    
5.1              TRAPEZOIDAL  1                0.5        1          1          1                    
5.2              TRAPEZOIDAL  1                0.5        1          1          1                    
5.3              TRAPEZOIDAL  1                0.5        1          1          1                    
5.4              TRAPEZOIDAL  1                0.5        1          1          1                    
5.5              TRAPEZOIDAL  1                0.5        1          1          1                    
5.6              TRAPEZOIDAL  1                0.5        1          1          1                    
5.7              TRAPEZOIDAL  1                0.5        1          1          1                    
5.8              TRAPEZOIDAL  1.1              0.5        1          1          1                    
6.1              CIRCULAR     0.6              0.000000   0.000000   0.000000   1                    
6.10             CIRCULAR     0.6              0.000000   0.000000   0.000000   1                    
6.2              CIRCULAR     0.6              0.000000   0.000000   0.000000   1                    
6.3              CIRCULAR     0.6              0.000000   0.000000   0.000000   1                    
6.4              CIRCULAR     0.6              0.000000   0.000000   0.000000   1                    
6.5              CIRCULAR     0.6              0.000000   0.000000   0.000000   1                    
6.6              CIRCULAR     0.6              0.000000   0.000000   0.000000   1                    
6.7              CIRCULAR     0.6              0.000000   0.000000   0.000000   1                    
6.8              CIRCULAR     0.6              0.000000   0.000000   0.000000   1                    
6.9              CIRCULAR     0.6              0.000000   0.000000   0.000000   1                    
7.1              TRAPEZOIDAL  0.7              0.3        1          1          1                    
7.2              TRAPEZOIDAL  0.7              0.3        1          1          1                    
7.3              TRAPEZOIDAL  0.7              0.3        1          1          1                    
7.4              TRAPEZOIDAL  0.7              0.3        1          1          1                    
7.5              TRAPEZOIDAL  0.7              0.3        1          1          1                    
7.6              TRAPEZOIDAL  0.7              0.3        1          1          1                    
7.7              TRAPEZOIDAL  0.7              0.3        1          1          1                    
1                CIRCULAR     1                0          0          0          1                    
g2               CIRCULAR     1                0          0          0
g3               CIRCULAR     1                0          0          0
g4               CIRCULAR     0.6              0          0          0
g5               RECT_CLOSED  1                1          0          0
g6               CIRCULAR     0.6              0          0          0
g7               RECT_CLOSED  1                0.5        0          0
u6               RECT_OPEN    0.6              0.6        0          0         
u4               RECT_OPEN    0.6              0.6        0          0         
u7               RECT_OPEN    0.5              0.3        0          0         
u2               RECT_OPEN    0.5              0.9        0          0         
g1               RECT_OPEN    1                1          0          0         

[TRANSECTS]
;;Transect Data in HEC-2 format
;
NC 0.01     0.01     0.01    
X1 sezione1          6        4.055    8.108    0.0      0.0      0.0      0.0      0.0     
GR 33.576   0        33.417   4.055    32.311   4.978    32.305   6.036    33.525   8.108   
GR 33.709   12.252  
;
NC 0.01     0.01     0.01    
X1 sezione2          8        2.699    7.318    0.0      0.0      0.0      0.0      0.0     
GR 33.691   0        33.814   2.699    32.27    4.596    32.222   5.131    32.262   5.492   
GR 32.446   6.209    33.67    7.318    33.64    10.894  
;
NC 0.01     0.01     0.01    
X1 sezione3          8        7.272    11.134   0.0      0.0      0.0      0.0      0.0     
GR 1.346    0        1.02     2.82     1.446    7.272    0.019    8.781    0        9.242   
GR 0.032    9.613    1.332    11.134   1.239    17.734  
;
NC 0.01     0.01     0.01    
X1 sezione4          15       7.29     10.911   0.0      0.0      0.0      0.0      0.0     
GR 0.84     0        0.356    1.415    0.331    1.772    0.887    2.738    1.191    7.29    
GR 0.072    8.699    0        9.145    0.031    9.663    1.302    10.911   1.178    13.784  
GR 0.692    16.499   0.18     17.491   0.208    17.922   0.721    18.957   0.924    21.52   
;
NC 0.01     0.01     0.01    
X1 sezione5          7        4.615    8.703    0.0      0.0      0.0      0.0      0.0     
GR 1.034    0        1.332    4.615    0.053    5.936    0        6.355    0.04     6.708   
GR 1.38     8.703    1.224    11.018  
;
NC 0.01     0.01     0.01    
X1 sezione6          10       5.39     9.421    0.0      0.0      0.0      0.0      0.0     
GR 1.055    0        1.251    2.91     1.412    3.983    1.348    5.39     0.058    6.931   
GR 0        7.343    0.073    7.782    1.39     9.421    1.564    11.469   1.215    13.296  
;
NC 0.01     0.01     0.01    
X1 sez_iniz          6        2.26     4.28     0.0      0.0      0.0      0.0      0.0     
GR 1.6      0        0.65     2.26     0        2.27     0        4.27     0.65     4.28    
GR 1.6      6.54    

[LOSSES]
;;Link           Kentry     Kexit      Kavg       Flap Gate  Seepage   
;;-------------- ---------- ---------- ---------- ---------- ----------
1.1              0          0          0          NO         12.5      
1.2              0          0          0          NO         12.5      
1.3              0          0          0          NO         12.5      
1.4              0          0          0          NO         12.5      
1.5              0          0          0          NO         12.5      
1.6              0          0          0          NO         12.5      
1.7              0          0          0          NO         12.5      
1.8              0          0          0          NO         12.5      
2.1              0          0          0          NO         12.5      
3.1              0          0          0          NO         12.5      
3.2              0          0          0          NO         12.5      
3.3              0          0          0          NO         12.5      
3.5              0          0          12.5       NO         0         
3.6              0          0          0          NO         12.5      
3.7              0          0          0          NO         12.5      
5.1              0          0          0          NO         12.5      
5.2              0          0          0          NO         12.5      
5.3              0          0          0          NO         12.5      
5.4              0          0          0          NO         12.5      
5.5              0          0          0          NO         12.5      
5.7              0          0          0          NO         12.5      
5.8              0          0          0          NO         12.5      
7.1              0          0          0          NO         12.5      
7.2              0          0          0          NO         12.5      
7.3              0          0          0          NO         12.5      
7.4              0          0          0          NO         12.5      
7.5              0          0          0          NO         12.5      
7.6              0          0          0          NO         12.5      
7.7              0          0          0          NO         12.5      

[CONTROLS]
;iniziali
Rule i_1
 if simulation time >= 0
 then weir u2 settings = 0.2

Rule i_2
 if simulation time >= 0
 then weir u4 settings = 0.15

Rule i_3
 if simulation time >= 0
 then weir u6 settings = 0.1

Rule i_4
 if simulation time >= 0
 then weir u7 settings = 0.2

Rule g_1
if simulation date = 07/08/2020
and simulation clocktime >= 06:00:00
 then weir g1 settings = 0

Rule g_2
if simulation date = 07/08/2020
and simulation clocktime >= 06:00:00
 then ORIFICES g2 settings = 0

Rule g_3
if simulation date = 07/08/2020
and simulation clocktime >= 06:00:00
 then ORIFICES g3 settings = 0

Rule g_4
if simulation date = 07/08/2020
and simulation clocktime >= 06:00:00
 then ORIFICES g4 settings = 0

Rule g_5
if simulation date = 07/08/2020
and simulation clocktime >= 06:00:00
 then ORIFICES g5 settings = 0

Rule g_6
if simulation date = 07/08/2020
and simulation clocktime >= 06:00:00
 then ORIFICES g6 settings = 0

Rule g_7
if simulation date = 07/08/2020
and simulation clocktime >= 06:00:00
 then ORIFICES g7 settings = 0


[CURVES]
;;Name           Type       X-Value    Y-Value   
;;-------------- ---------- ---------- ----------
10l/s            Pump4      0          10        
10l/s                       1          10        
;
SanMichele       Storage    0          100000000000
SanMichele                  1          100000000000
;
out              Storage    0          10E15     
out                         1          10E15     
;
720m^3           Storage    0          720       
720m^3                      1          720       

[REPORT]
;;Reporting Options
SUBCATCHMENTS ALL
NODES ALL
LINKS ALL

[TAGS]

[MAP]
DIMENSIONS 1634253.311 4957304.366 1637947.532 4962204.631
Units      None

[COORDINATES]
;;Node           X-Coord            Y-Coord           
;;-------------- ------------------ ------------------
1_1              1637671.600        4957527.700       
1_10             1636885.100        4958706.700       
1_11             1636819.700        4958885.500       
1_12             1636707.479        4959050.767       
1_13             1636630.055        4959129.788       
1_14             1636549.700        4959211.200       
1_15             1636458.657        4959298.810       
1_16             1636390.100        4959367.200       
1_2              1637643.900        4957609.200       
1_3              1637678.200        4957854.300       
1_4              1637693.006        4958098.368       
1_5              1637668.584        4958271.690       
1_6              1637532.597        4958723.247       
1_7              1637429.500        4958796.700       
1_8              1637371.642        4958791.172       
1_9              1637289.482        4958776.895       
5_2              1636289.000        4960026.000       
5_3              1636196.300        4959963.500       
5_4              1636155.000        4960025.200       
5_5              1636119.900        4960077.000       
5_6              1636056.900        4960061.900       
5_7              1636011.100        4960131.900       
5_8              1635912.964        4960275.565       
2_1              1636389.293        4959367.789       
5_9              1635886.000        4960319.600       
3_1              1636390.728        4959367.969       
3_2              1636444.620        4959436.019       
3_3              1636502.659        4959508.861       
3_4              1636574.100        4959600.700       
3_5              1636552.095        4959699.526       
3_6              1636515.034        4959739.580       
3_7              1636425.641        4959838.907       
3_8              1636366.900        4959921.500       
6_8              1637350.795        4961067.125       
6_7              1637260.100        4961034.100       
6_6              1637093.902        4960889.359       